Package: inlmisc
Title: Miscellaneous Functions for the USGS INL Project Office
Version: 0.4.3.9000
Authors@R: person(given=c("Jason", "C."), family="Fisher", role=c("aut", "cre"), email="jfisher@usgs.gov", comment=c(ORCID="0000-0001-9032-8912"))
Description: A collection of functions for creating high-level graphics,
    performing raster-based analysis, processing MODFLOW-based models,
    selecting subsets using a genetic algorithm, creating interactive web maps,
    accessing color palettes, etc. Used to support packages and scripts written
    by researchers at the United States Geological Survey (USGS)
    Idaho National Laboratory (INL) Project Office.
Depends:
    R (>= 3.4.0)
Imports:
    checkmate,
    dplyr,
    GA,
    graphics,
    grDevices,
    htmltools,
    htmlwidgets,
    igraph,
    knitr,
    leaflet,
    methods,
    parallel,
    raster,
    rgdal,
    rgeos,
    scales,
    sp,
    stats,
    tools,
    xtable
Suggests:
    devtools,
    dichromat,
    doParallel,
    doRNG,
    githubinstall,
    gstat,
    httr,
    roxygen2,
    testthat
License: CC0
Copyright: This software is in the public domain because it contains materials
    that originally came from the United States Geological Survey, an agency of
    the United States Department of Interior.
URL: https://github.com/USGS-R/inlmisc
BugReports: https://github.com/USGS-R/inlmisc/issues
Encoding: UTF-8
LazyData: true
LazyDataCompression: xz
RoxygenNote: 6.1.0
