Package: inlmisc
Title: Miscellaneous Functions for the USGS INL Project Office
Version: 0.0.1
Authors@R: person("Jason", "Fisher", email="jfisher@usgs.gov", role=c("aut", "cre"))
Description: A collection of functions for creating high-level graphics,
    performing raster-based analysis, processing MODFLOW-based models, and
    overlaying multi-polygon objects. Used to support packages and scripts written
    by researchers at the USGS Idaho National Laboratory Project Office.
Depends:
    R (>= 3.2.0)
Imports:
    dplyr,
    grDevices,
    graphics,
    igraph,
    methods,
    sp,
    stats,
    raster,
    rgdal,
    rgeos
Suggests:
    colorspace,
    maptools,
    testthat
License: CC0
Copyright: This software is in the public domain because it contains materials
    that originally came from the United States Geological Survey (USGS), an
    agency of the United States Department of Interior. For more information,
    see the official USGS copyright policy at http://www.usgs.gov/visual-id/
    credit_usgs.html#copyright
URL: https://github.com/jfisher-usgs/inlmisc
BugReports: https://github.com/jfisher-usgs/inlmisc/issues
Encoding: UTF-8
LazyData: true
RoxygenNote: 5.0.1
